-I"C:\Umaine Google Sync\GitHub\FOCAL-C2-Linearization\OpenFAST\Models\Simulink"
-I"C:\Program Files\MATLAB\R2022a\extern\include"
-I"C:\Umaine Google Sync\GitHub\FOCAL-C2-Linearization\OpenFAST\Models\Simulink\slprj\raccel\Linear_Decoupled_HD"
-I"C:\Program Files\MATLAB\R2022a\rtw\c\src\rapid"
-I"C:\Program Files\MATLAB\R2022a\rtw\c\raccel"
-I"C:\Program Files\MATLAB\R2022a\rtw\c\src\ext_mode\common"
-I"C:\Program Files\MATLAB\R2022a\toolbox\coder\rtiostream\src"
-I"C:\Program Files\MATLAB\R2022a\simulink\include"
-I"C:\Program Files\MATLAB\R2022a\rtw\c\src"
-I"C:\Program Files\MATLAB\R2022a\toolbox\coder\rtiostream\src\rtiostreamtcpip"
-I"C:\Program Files\MATLAB\R2022a\toolbox\coder\rtiostream\src\utils"
